/*--------------------------------*- C++ -*----------------------------------*\n  =========                 |
  \      /  F ield         | OpenFOAM: The Open Source CFD Toolbox
   \    /   O peration     | Website:  https://openfoam.org
    \  /    A nd           | Version:  6
     \/     M anipulation  |
\*---------------------------------------------------------------------------*/
FoamFile
{
    version     2.0;
    format      ascii;
    class       dictionary;
    object      blockMeshDict;
}

// * * * * * * * * * * * * * * * * * * * * * * * * * * * * * * * * * * * * * //


convertToMeters 1;

vertices
(
    (0.0 -1.0 0.0 ) // 0
    (0.0 1.0 0.0 ) // 1
    (0.0 0.0 -1.0 ) // 2
    (0.0 0.0 1.0 ) // 3
    (0.0 -0.5 0.0 ) // 4
    (0.0 0.5 0.0 ) // 5
    (0.0 0.0 -0.5 ) // 6
    (0.0 0.0 0.5 ) // 7
    (1.0 -1.0 0.0 ) // 8
    (1.0 1.0 0.0 ) // 9
    (1.0 0.0 -1.0 ) // 10
    (1.0 0.0 1.0 ) // 11
    (1.0 -0.5 0.0 ) // 12
    (1.0 0.5 0.0 ) // 13
    (1.0 0.0 -0.5 ) // 14
    (1.0 0.0 0.5 ) // 15
);

blocks
(
 hex (0 2 6 4 8 10 14 12) (10 10 20) simpleGrading (1 1 1)
 hex (2 1 5 6 10 9 13 14) (10 10 20) simpleGrading (1 1 1)
 hex (1 3 7 5 9 11 15 13) (10 10 20) simpleGrading (1 1 1)
 hex (3 0 4 7 11 8 12 15) (10 10 20) simpleGrading (1 1 1)
 hex (4 6 5 7 12 14 13 15) (10 10 20) simpleGrading (1 1 1)
 
);

edges
(
 arc 0 2 (0.0 -0.7071067811865475 -0.7071067811865475 ) 
 arc 1 3 (0.0 0.7071067811865475 0.7071067811865475 ) 
 arc 1 2 (0.0 0.7071067811865475 -0.7071067811865475 ) 
 arc 3 0 (0.0 -0.7071067811865475 0.7071067811865475 ) 
 arc 8 10 (1.0 -0.7071067811865475 -0.7071067811865475 ) 
 arc 9 11 (1.0 0.7071067811865475 0.7071067811865475 ) 
 arc 10 9 (1.0 0.7071067811865475 -0.7071067811865475 ) 
 arc 11 8 (1.0 -0.7071067811865475 0.7071067811865475 ) 
);

boundary
(
    
    inlet
    {
        type patch;
        faces
        (
            (0 2 6 4)
            (2 1 5 6)
            (1 3 7 5)
            (3 0 4 7)
            (4 6 5 7)
        );
    }
    outlet
    {
        type patch;
        faces
        (
            (8 10 14 12)
            (10 9 13 14)
            (9 11 15 13)
            (11 8 12 15)
            (12 14 13 15)
        );
    }
    walls
    {
        type wall;
        faces
        (
            (0 2 10 8)
            (2 1 9 10)
            (1 3 11 9)
            (3 0 8 11)
        );
    }
);

// ************************************************************************* //
