/*--------------------------------*- C++ -*----------------------------------*\ 
  =========                 |
  \      /  F ield         | OpenFOAM: The Open Source CFD Toolbox
   \    /   O peration     | Website:  https://openfoam.org
    \  /    A nd           | Version:  6
     \/     M anipulation  |
\*---------------------------------------------------------------------------*/
FoamFile
{
    version     2.0;
    format      ascii;
    class       dictionary;
    object      blockMeshDict;
}

// * * * * * * * * * * * * * * * * * * * * * * * * * * * * * * * * * * * * * //


convertToMeters 1;

vertices
(
    (-0.495629 -0.524253 0.123263 ) // 0
    (-0.495629 -0.524253 0.157832 ) // 1
    (-0.472736 -0.524253 0.157832 ) // 2
    (-0.472736 -0.524253 0.123263 ) // 3
    (-0.495629 -0.489657 0.123263 ) // 4
    (-0.495629 -0.489657 0.157832 ) // 5
    (-0.472736 -0.489657 0.157832 ) // 6
    (-0.472736 -0.489657 0.123263 ) // 7
);

blocks
(
 hex (0 1 2 3 4 5 6 7) (10 10 10) simpleGrading (1 1 1)
 
);

edges
(
);

boundary
(
    
    defaultFaces
    {
        type patch;
        faces
        (
            (0 1 5 4)
            (3 0 4 7)
            (2 3 7 6)
            (1 2 6 5)
            (0 1 2 3)
            (4 5 6 7)
        );
    }
);

// ************************************************************************* //
